
#======================================================================
# CRYSTAL DATA
#----------------------------------------------------------------------
data_VESTA_phase_1

_chemical_name_common                  'CONTCAR                               '
_cell_length_a                         6.318900
_cell_length_b                         5.899700
_cell_length_c                         5.987400
_cell_angle_alpha                      90.000999
_cell_angle_beta                       90.055000
_cell_angle_gamma                      89.998398
_cell_volume                           223.207872
_space_group_name_H-M_alt              'P 1'
_space_group_IT_number                 1

loop_
_space_group_symop_operation_xyz
   'x, y, z'

loop_
   _atom_site_label
   _atom_site_occupancy
   _atom_site_fract_x
   _atom_site_fract_y
   _atom_site_fract_z
   _atom_site_adp_type
   _atom_site_B_iso_or_equiv
   _atom_site_type_symbol
   C1          1.0     0.627700     0.400940     0.477740    Biso  1.000000 C
   N1          1.0     0.467360     0.574900     0.540000    Biso  1.000000 N
   H1          1.0     0.634310     0.388090     0.295510    Biso  1.000000 H
   H2          1.0     0.580310     0.238460     0.550540    Biso  1.000000 H
   H3          1.0     0.781520     0.453660     0.544130    Biso  1.000000 H
   H4          1.0     0.317030     0.532610     0.482930    Biso  1.000000 H
   H5          1.0     0.505250     0.733960     0.476880    Biso  1.000000 H
   H6          1.0     0.453690     0.595050     0.711790    Biso  1.000000 H
   Pb1         1.0     0.986730     0.989660     0.987840    Biso  1.000000 Pb
   I1          1.0     0.479050     0.989680     0.950500    Biso  1.000000 I
   Br1         1.0     0.943200     0.989660     0.482190    Biso  1.000000 Br
   Br2         1.0     0.949130     0.489670     0.018050    Biso  1.000000 Br
